Version 4
SHEET 1 880 680
WIRE 48 96 0 96
WIRE 224 96 192 96
WIRE 368 96 336 96
WIRE 480 96 480 -32
WIRE 480 96 448 96
WIRE 496 96 480 96
WIRE 560 96 560 -32
WIRE 224 144 224 96
WIRE 336 144 336 96
WIRE 0 160 0 96
WIRE 224 272 224 224
WIRE 0 384 0 240
WIRE 224 384 224 352
WIRE 336 384 336 224
WIRE 560 384 560 96
FLAG 224 384 0
FLAG 0 384 0
FLAG 336 384 0
FLAG 560 384 0
SYMBOL voltage 0 144 R0
WINDOW 123 -106 129 Left 2
WINDOW 39 0 0 Left 0
WINDOW 3 -260 93 Left 2
SYMATTR Value2 AC 40
SYMATTR Value SINE(0 60 486000)
SYMATTR InstName V1
SYMBOL cap 192 80 R90
WINDOW 0 0 31 VBottom 2
WINDOW 3 32 32 VTop 2
SYMATTR InstName C1
SYMATTR Value 50n
SYMBOL ind2 208 128 R0
SYMATTR InstName L1
SYMATTR Value 1.70µ
SYMATTR Type ind
SYMBOL ind2 352 240 R180
WINDOW 0 37 72 Left 2
WINDOW 3 -53 32 Left 2
SYMATTR InstName L2
SYMATTR Value 1512µ
SYMATTR Type ind
SYMBOL cap 560 80 R90
WINDOW 0 0 32 VBottom 2
WINDOW 3 32 32 VTop 2
SYMATTR InstName C2
SYMATTR Value 100p
SYMBOL res 464 80 R90
WINDOW 0 0 56 VBottom 2
WINDOW 3 32 56 VTop 2
SYMATTR InstName R1
SYMATTR Value 11
SYMBOL res 576 -48 R90
WINDOW 0 0 56 VBottom 2
WINDOW 3 32 56 VTop 2
SYMATTR InstName R2
SYMATTR Value 187500
SYMBOL ind 32 112 R270
WINDOW 0 32 56 VTop 2
WINDOW 3 5 56 VBottom 2
SYMATTR InstName Lw1
SYMATTR Value 1.1µ
SYMBOL ind 208 256 R0
SYMATTR InstName Lw2
SYMATTR Value 1.1µ
TEXT 248 240 Left 2 !K1 L1 L2 0.55
TEXT 472 448 Left 2 ;.ac oct 10000 100000 2000000
TEXT -216 432 Left 2 !.tran 0.001
