Version 4
SHEET 1 880 680
WIRE 96 96 0 96
WIRE 224 96 160 96
WIRE 368 96 336 96
WIRE 480 96 480 -32
WIRE 480 96 448 96
WIRE 496 96 480 96
WIRE 560 96 560 -32
WIRE 224 144 224 96
WIRE 336 144 336 96
WIRE 0 160 0 96
WIRE 0 272 0 240
WIRE 224 272 224 224
WIRE 336 272 336 224
WIRE 560 272 560 96
FLAG 224 272 0
FLAG 0 272 0
FLAG 336 272 0
FLAG 560 272 0
SYMBOL voltage 0 144 R0
WINDOW 123 24 124 Left 2
WINDOW 39 0 0 Left 0
SYMATTR Value2 AC 40
SYMATTR InstName V1
SYMATTR Value SINE(0 15 572000)
SYMBOL cap 160 80 R90
WINDOW 0 0 32 VBottom 2
WINDOW 3 32 32 VTop 2
SYMATTR InstName C1
SYMATTR Value 50n
SYMBOL ind2 208 128 R0
SYMATTR InstName L1
SYMATTR Value 1.531µ
SYMATTR Type ind
SYMBOL ind2 352 240 R180
WINDOW 0 37 72 Left 2
WINDOW 3 -53 32 Left 2
SYMATTR InstName L2
SYMATTR Value 1522µ
SYMATTR Type ind
SYMBOL cap 560 80 R90
WINDOW 0 0 32 VBottom 2
WINDOW 3 32 32 VTop 2
SYMATTR InstName C2
SYMATTR Value 1.6p
SYMBOL res 464 80 R90
WINDOW 0 0 56 VBottom 2
WINDOW 3 32 56 VTop 2
SYMATTR InstName R1
SYMATTR Value 0.11
SYMBOL res 576 -48 R90
WINDOW 0 0 56 VBottom 2
WINDOW 3 32 56 VTop 2
SYMATTR InstName R2
SYMATTR Value 187500
TEXT 272 336 Left 2 !K1 L1 L2 0.56
TEXT 464 400 Left 2 ;.ac oct 10000 100000 2000000
TEXT -8 400 Left 2 !.tran 0.001
